Circuit: * C:\Users\artur\OneDrive\Desktop\60W-20V-Buck-Converter-in-CCM\Ltspice simulation models\Evaluate_Mosfet_Switching_Time\Mosfet_Switch_Time_Eval.asc

Direct Newton iteration for .op point succeeded.

Date: Sat Jul  1 22:57:43 2023
Total elapsed time: 0.367 seconds.

tnom = 27
temp = 27
method = modified trap
totiter = 9873
traniter = 9851
tranpoints = 3987
accept = 3157
rejected = 830
matrix size = 19
fillins = 12
solver = Normal
Avg thread counts: 2.3/4.1/4.1/2.3
Matrix Compiler1:      84 opcodes  0.5/[0.2]/0.2
Matrix Compiler2: off  [0.2]/0.3/0.3

