Circuit: * C:\Users\artur\Desktop\60W-20V-Buck-Converter-in-CCM\Ltspice simulation models\buck_simplified.asc

Direct Newton iteration for .op point succeeded.

Date: Mon Jun 05 15:59:13 2023
Total elapsed time: 13.987 seconds.

tnom = 27
temp = 27
method = modified trap
totiter = 10481879
traniter = 10481873
tranpoints = 3302806
accept = 2666941
rejected = 635865
matrix size = 12
fillins = 13
solver = Normal
Matrix Compiler1: 1.20 KB object code size  0.2/0.1/[0.1]
Matrix Compiler2: 1.10 KB object code size  0.1/0.2/[0.1]

