LTspice 24.0.9 for Windows
Circuit: * C:\Users\artur\OneDrive\Desktop\60W-20V-Buck-Converter-in-CCM\Ltspice simulation models\buck_simplified.asc
Start Time: Mon Feb 19 00:12:59 2024
solver = Normal
Maximum thread count: 8
tnom = 27
temp = 27
method = modified trap
WARNING: Less than two connections to node cin_ac.  This node is used by b1.
Direct Newton iteration for .op point succeeded.
Total elapsed time: 16.357 seconds.

