Circuit: * C:\Users\artur\Desktop\60W-20V-Buck-Converter-in-CCM\Ltspice simulation models\buck_simplified.asc

Direct Newton iteration for .op point succeeded.

Date: Sun Jan 08 16:49:37 2023
Total elapsed time: 4.248 seconds.

tnom = 27
temp = 27
method = modified trap
totiter = 3001395
traniter = 3001389
tranpoints = 941372
accept = 775229
rejected = 166143
matrix size = 11
fillins = 3
solver = Normal
Matrix Compiler1: 718 bytes object code size  0.2/0.1/[0.1]
Matrix Compiler2: 883 bytes object code size  0.1/0.2/[0.1]

